[root]
type=Root
children=system
eventq_index=0
full_system=false
sim_quantum=0
time_sync_enable=false
time_sync_period=100000000000
time_sync_spin_threshold=100000000

[system]
type=System
children=clk_domain cpu cpu_clk_domain cpu_voltage_domain dvfs_handler membus physmem voltage_domain
boot_osflags=a
cache_line_size=64
clk_domain=system.clk_domain
default_p_state=UNDEFINED
eventq_index=0
exit_on_work_items=false
init_param=0
kernel=
kernel_addr_check=true
load_addr_mask=1099511627775
load_offset=0
mem_mode=timing
mem_ranges=
memories=system.physmem
mmap_using_noreserve=false
multi_thread=false
num_work_ids=16
p_state_clk_gate_bins=20
p_state_clk_gate_max=1000000000000
p_state_clk_gate_min=1000
power_model=Null
readfile=
symbolfile=
thermal_components=
thermal_model=Null
work_begin_ckpt_count=0
work_begin_cpu_id_exit=-1
work_begin_exit_count=0
work_cpus_ckpt_count=0
work_end_ckpt_count=0
work_end_exit_count=0
work_item_id=-1
system_port=system.membus.slave[0]

[system.clk_domain]
type=SrcClockDomain
clock=1000
domain_id=-1
eventq_index=0
init_perf_level=0
voltage_domain=system.voltage_domain

[system.cpu]
type=DerivO3CPU
children=branchPred dcache dstage2_mmu dtb fuPool icache interrupts isa istage2_mmu itb tracer workload
LFSTSize=1024
LQEntries=32
LSQCheckLoads=true
LSQDepCheckShift=4
SQEntries=32
SSITSize=1024
activity=0
backComSize=5
branchPred=system.cpu.branchPred
cachePorts=200
checker=Null
clk_domain=system.clk_domain
commitToDecodeDelay=1
commitToFetchDelay=1
commitToIEWDelay=1
commitToRenameDelay=1
commitWidth=8
cpu_id=0
decodeToFetchDelay=1
decodeToRenameDelay=1
decodeWidth=3
default_p_state=UNDEFINED
dispatchWidth=3
do_checkpoint_insts=true
do_quiesce=true
do_statistics_insts=true
dstage2_mmu=system.cpu.dstage2_mmu
dtb=system.cpu.dtb
eventq_index=0
fetchBufferSize=64
fetchQueueSize=32
fetchToDecodeDelay=1
fetchTrapLatency=1
fetchWidth=3
forwardComSize=5
fuPool=system.cpu.fuPool
function_trace=false
function_trace_start=0
iewToCommitDelay=1
iewToDecodeDelay=1
iewToFetchDelay=1
iewToRenameDelay=1
interrupts=system.cpu.interrupts
isa=system.cpu.isa
issueToExecuteDelay=1
issueWidth=3
istage2_mmu=system.cpu.istage2_mmu
itb=system.cpu.itb
max_insts_all_threads=0
max_insts_any_thread=0
max_loads_all_threads=0
max_loads_any_thread=0
needsTSO=false
numIQEntries=64
numPhysCCRegs=1280
numPhysFloatRegs=256
numPhysIntRegs=256
numROBEntries=192
numRobs=1
numThreads=1
p_state_clk_gate_bins=20
p_state_clk_gate_max=1000000000000
p_state_clk_gate_min=1000
power_model=Null
profile=0
progress_interval=0
renameToDecodeDelay=1
renameToFetchDelay=1
renameToIEWDelay=2
renameToROBDelay=1
renameWidth=8
simpoint_start_insts=
smtCommitPolicy=RoundRobin
smtFetchPolicy=SingleThread
smtIQPolicy=Partitioned
smtIQThreshold=100
smtLSQPolicy=Partitioned
smtLSQThreshold=100
smtNumFetchingThreads=1
smtROBPolicy=Partitioned
smtROBThreshold=100
socket_id=0
squashWidth=8
store_set_clear_period=250000
switched_out=false
system=system
tracer=system.cpu.tracer
trapLatency=13
wbWidth=8
workload=system.cpu.workload
dcache_port=system.cpu.dcache.cpu_side
icache_port=system.cpu.icache.cpu_side

[system.cpu.branchPred]
type=TournamentBP
BTBEntries=4096
BTBTagSize=16
RASSize=16
choiceCtrBits=2
choicePredictorSize=8192
eventq_index=0
globalCtrBits=2
globalPredictorSize=8192
indirectHashGHR=true
indirectHashTargets=true
indirectPathLength=3
indirectSets=256
indirectTagSize=16
indirectWays=2
instShiftAmt=2
localCtrBits=2
localHistoryTableSize=2048
localPredictorSize=2048
numThreads=1
useIndirect=true

[system.cpu.dcache]
type=Cache
children=tags
addr_ranges=0:18446744073709551615:0:0:0:0
assoc=1
clk_domain=system.clk_domain
clusivity=mostly_incl
data_latency=2
default_p_state=UNDEFINED
demand_mshr_reserve=1
eventq_index=0
is_read_only=false
max_miss_count=0
mshrs=4
p_state_clk_gate_bins=20
p_state_clk_gate_max=1000000000000
p_state_clk_gate_min=1000
power_model=Null
prefetch_on_access=false
prefetcher=Null
response_latency=2
sequential_access=false
size=65536
system=system
tag_latency=2
tags=system.cpu.dcache.tags
tgts_per_mshr=20
write_buffers=8
writeback_clean=false
cpu_side=system.cpu.dcache_port
mem_side=system.membus.slave[2]

[system.cpu.dcache.tags]
type=LRU
assoc=1
block_size=64
clk_domain=system.clk_domain
data_latency=2
default_p_state=UNDEFINED
eventq_index=0
p_state_clk_gate_bins=20
p_state_clk_gate_max=1000000000000
p_state_clk_gate_min=1000
power_model=Null
sequential_access=false
size=65536
tag_latency=2

[system.cpu.dstage2_mmu]
type=ArmStage2MMU
children=stage2_tlb
eventq_index=0
stage2_tlb=system.cpu.dstage2_mmu.stage2_tlb
sys=system
tlb=system.cpu.dtb

[system.cpu.dstage2_mmu.stage2_tlb]
type=ArmTLB
children=walker
eventq_index=0
is_stage2=true
size=32
walker=system.cpu.dstage2_mmu.stage2_tlb.walker

[system.cpu.dstage2_mmu.stage2_tlb.walker]
type=ArmTableWalker
clk_domain=system.clk_domain
default_p_state=UNDEFINED
eventq_index=0
is_stage2=true
num_squash_per_cycle=2
p_state_clk_gate_bins=20
p_state_clk_gate_max=1000000000000
p_state_clk_gate_min=1000
power_model=Null
sys=system

[system.cpu.dtb]
type=ArmTLB
children=walker
eventq_index=0
is_stage2=false
size=64
walker=system.cpu.dtb.walker

[system.cpu.dtb.walker]
type=ArmTableWalker
clk_domain=system.clk_domain
default_p_state=UNDEFINED
eventq_index=0
is_stage2=false
num_squash_per_cycle=2
p_state_clk_gate_bins=20
p_state_clk_gate_max=1000000000000
p_state_clk_gate_min=1000
power_model=Null
sys=system
port=system.membus.slave[4]

[system.cpu.fuPool]
type=FUPool
children=FUList0 FUList1 FUList2 FUList3
FUList=system.cpu.fuPool.FUList0 system.cpu.fuPool.FUList1 system.cpu.fuPool.FUList2 system.cpu.fuPool.FUList3
eventq_index=0

[system.cpu.fuPool.FUList0]
type=FUDesc
children=opList
count=2
eventq_index=0
opList=system.cpu.fuPool.FUList0.opList

[system.cpu.fuPool.FUList0.opList]
type=OpDesc
eventq_index=0
opClass=IntAlu
opLat=1
pipelined=true

[system.cpu.fuPool.FUList1]
type=FUDesc
children=opList
count=1
eventq_index=0
opList=system.cpu.fuPool.FUList1.opList

[system.cpu.fuPool.FUList1.opList]
type=OpDesc
eventq_index=0
opClass=IntMult
opLat=3
pipelined=true

[system.cpu.fuPool.FUList2]
type=FUDesc
children=opList
count=1
eventq_index=0
opList=system.cpu.fuPool.FUList2.opList

[system.cpu.fuPool.FUList2.opList]
type=OpDesc
eventq_index=0
opClass=IntDiv
opLat=20
pipelined=true

[system.cpu.fuPool.FUList3]
type=FUDesc
children=opList0 opList1
count=1
eventq_index=0
opList=system.cpu.fuPool.FUList3.opList0 system.cpu.fuPool.FUList3.opList1

[system.cpu.fuPool.FUList3.opList0]
type=OpDesc
eventq_index=0
opClass=MemRead
opLat=1
pipelined=true

[system.cpu.fuPool.FUList3.opList1]
type=OpDesc
eventq_index=0
opClass=MemWrite
opLat=1
pipelined=true

[system.cpu.icache]
type=Cache
children=tags
addr_ranges=0:18446744073709551615:0:0:0:0
assoc=1
clk_domain=system.clk_domain
clusivity=mostly_incl
data_latency=2
default_p_state=UNDEFINED
demand_mshr_reserve=1
eventq_index=0
is_read_only=true
max_miss_count=0
mshrs=4
p_state_clk_gate_bins=20
p_state_clk_gate_max=1000000000000
p_state_clk_gate_min=1000
power_model=Null
prefetch_on_access=false
prefetcher=Null
response_latency=2
sequential_access=false
size=65536
system=system
tag_latency=2
tags=system.cpu.icache.tags
tgts_per_mshr=20
write_buffers=8
writeback_clean=true
cpu_side=system.cpu.icache_port
mem_side=system.membus.slave[1]

[system.cpu.icache.tags]
type=LRU
assoc=1
block_size=64
clk_domain=system.clk_domain
data_latency=2
default_p_state=UNDEFINED
eventq_index=0
p_state_clk_gate_bins=20
p_state_clk_gate_max=1000000000000
p_state_clk_gate_min=1000
power_model=Null
sequential_access=false
size=65536
tag_latency=2

[system.cpu.interrupts]
type=ArmInterrupts
eventq_index=0

[system.cpu.isa]
type=ArmISA
decoderFlavour=Generic
eventq_index=0
fpsid=1090793632
id_aa64afr0_el1=0
id_aa64afr1_el1=0
id_aa64dfr0_el1=1052678
id_aa64dfr1_el1=0
id_aa64isar0_el1=0
id_aa64isar1_el1=0
id_aa64mmfr0_el1=15728642
id_aa64mmfr1_el1=0
id_isar0=34607377
id_isar1=34677009
id_isar2=555950401
id_isar3=17899825
id_isar4=268501314
id_isar5=0
id_mmfr0=270536963
id_mmfr1=0
id_mmfr2=19070976
id_mmfr3=34611729
midr=1091551472
pmu=Null
system=system

[system.cpu.istage2_mmu]
type=ArmStage2MMU
children=stage2_tlb
eventq_index=0
stage2_tlb=system.cpu.istage2_mmu.stage2_tlb
sys=system
tlb=system.cpu.itb

[system.cpu.istage2_mmu.stage2_tlb]
type=ArmTLB
children=walker
eventq_index=0
is_stage2=true
size=32
walker=system.cpu.istage2_mmu.stage2_tlb.walker

[system.cpu.istage2_mmu.stage2_tlb.walker]
type=ArmTableWalker
clk_domain=system.clk_domain
default_p_state=UNDEFINED
eventq_index=0
is_stage2=true
num_squash_per_cycle=2
p_state_clk_gate_bins=20
p_state_clk_gate_max=1000000000000
p_state_clk_gate_min=1000
power_model=Null
sys=system

[system.cpu.itb]
type=ArmTLB
children=walker
eventq_index=0
is_stage2=false
size=64
walker=system.cpu.itb.walker

[system.cpu.itb.walker]
type=ArmTableWalker
clk_domain=system.clk_domain
default_p_state=UNDEFINED
eventq_index=0
is_stage2=false
num_squash_per_cycle=2
p_state_clk_gate_bins=20
p_state_clk_gate_max=1000000000000
p_state_clk_gate_min=1000
power_model=Null
sys=system
port=system.membus.slave[3]

[system.cpu.tracer]
type=ExeTracer
eventq_index=0

[system.cpu.workload]
type=LiveProcess
cmd=eeg.arm
cwd=
drivers=
egid=100
env=
errout=cerr
euid=100
eventq_index=0
executable=eeg.arm
gid=100
input=cin
kvmInSE=false
max_stack_size=67108864
output=cout
pid=100
ppid=99
simpoint=0
system=system
uid=100
useArchPT=false

[system.cpu_clk_domain]
type=SrcClockDomain
clock=500
domain_id=-1
eventq_index=0
init_perf_level=0
voltage_domain=system.cpu_voltage_domain

[system.cpu_voltage_domain]
type=VoltageDomain
eventq_index=0
voltage=1.000000

[system.dvfs_handler]
type=DVFSHandler
domains=
enable=false
eventq_index=0
sys_clk_domain=system.clk_domain
transition_latency=100000000

[system.membus]
type=CoherentXBar
children=snoop_filter
clk_domain=system.clk_domain
default_p_state=UNDEFINED
eventq_index=0
forward_latency=4
frontend_latency=3
p_state_clk_gate_bins=20
p_state_clk_gate_max=1000000000000
p_state_clk_gate_min=1000
point_of_coherency=true
power_model=Null
response_latency=2
snoop_filter=system.membus.snoop_filter
snoop_response_latency=4
system=system
use_default_range=false
width=16
master=system.physmem.port
slave=system.system_port system.cpu.icache.mem_side system.cpu.dcache.mem_side system.cpu.itb.walker.port system.cpu.dtb.walker.port

[system.membus.snoop_filter]
type=SnoopFilter
eventq_index=0
lookup_latency=1
max_capacity=8388608
system=system

[system.physmem]
type=SimpleMemory
bandwidth=73.000000
clk_domain=system.clk_domain
conf_table_reported=true
default_p_state=UNDEFINED
eventq_index=0
in_addr_map=true
kvm_map=true
latency=30000
latency_var=0
null=false
p_state_clk_gate_bins=20
p_state_clk_gate_max=1000000000000
p_state_clk_gate_min=1000
power_model=Null
range=0:536870911:0:0:0:0
port=system.membus.master[0]

[system.voltage_domain]
type=VoltageDomain
eventq_index=0
voltage=1.000000

